* Measured parameters downloaded from MOSIS Site: http://www.mosis.com/Technical/Testdata/ibm-018-prm.html
* Downloaded most recent run (30-09-2008): T82M_7RF_6LM_ML_QT
* Created by SCB on 7-11-2008

********************************************************************************************************
*/ The following lines are added to enable simulation with LTspice
*/ Copied from /appl/iclibs/umc/L130/swcad/L130E_HS12_V241.mdl
*/ Area and Perimeter calculation of source and drain scaled-up sqrt(2) compared to 0.13um UMC model

.subckt CMOSN d g s b

.params: w={w} l={l} m={m}

M1 d g s b CMOSN l={l} w={w} ad={w*4.8e-7} as={w*4.8e-7} pd={2*w+2*4.8e-7} ps={2*w+2*4.8e-7} m={m}

.ends CMOSN


.subckt CMOSP d g s b

.params: w={w} l={l} m={m}

M1 d g s b CMOSP l={l} w={w} ad={w*4.8e-7} as={w*4.8e-7} pd={2*w+2*4.8e-7} ps={2*w+2*4.8e-7} m={m}

.ends CMOSP

******************************************************************************************************

*                                         
*                           MOSIS WAFER ACCEPTANCE TESTS
*                                          
*     RUN: T82M (7RF_6LM_ML_QT)                         VENDOR: IBM-BURLINGTON
*   TECHNOLOGY: SCN018                                FEATURE SIZE: 0.18 microns
*                                   Run type: SKD
*
*
*INTRODUCTION: This report contains the lot average results obtained by MOSIS
*              from measurements of MOSIS test structures on each wafer of
*              this fabrication lot. SPICE parameters obtained from similar
*              measurements on a selected wafer are also attached.
*
*COMMENTS: 7RF_IBM-BURLIN
*
*
*TRANSISTOR PARAMETERS     W/L       N-CHANNEL P-CHANNEL  UNITS
*                                                        
* MINIMUM                  0.24/0.18                     
*  Vth                                    0.47     -0.41  volts
*                                                        
* SHORT                    20.0/0.18                     
*  Idss                                 559      -280     uA/um
*  Vth                                    0.49     -0.43  volts
*  Vpt                                    5.7      -5.0   volts
*                                                        
* WIDE                     20.0/0.18                     
*  Ids0                                  68.0    -123.7   pA/um
*                                                        
* LARGE                    20.0/20.0                     
*  Vth                                    0.36     -0.43  volts
*  Vjbkd                                  3.7      -4.2   volts
*  Ijlk                                 <50.0     <50.0   pA
*                                                        
* K' (Uo*Cox/2)                         158.4     -32.9   uA/V^2
* Low-field Mobility                    412.85     85.75  cm^2/V*s
*                                                        
*
*PROCESS PARAMETERS     N+    P+      POLY    P+PLY    M1     M2   UNITS
* Sheet Resistance       6.3   6.0    6.4    261.5    0.08   0.10  ohms/sq
* Contact Resistance     7.7   7.5    7.0                    2.27  ohms
* Gate Oxide Thickness  45                                         angstrom
*                                                                      
*PROCESS PARAMETERS   M3   M4   M5  N+BLK P+BLK  M6   RP   POLY_NON TaN UNITS
* Sheet Resistance   0.10 0.09 0.09  71.6 109.1 0.01 160.5  1602.1      ohms/sq
* Contact Resistance 4.16 6.18 8.00             8.30                    ohms
*                                                                            
*COMMENTS: BLK is silicide block.
*
*
*CAPACITANCE PARAMETERS     N+     P+    POLY   D_N_W    R_W     N_W     UNITS
* Area (substrate)         886   1178             419             213    aF/um^2
* Area (N+active)                       7751                             aF/um^2
* Area (P+active)                       7440                             aF/um^2
* Area (r well)           1003                                           aF/um^2
* Area (d well)                                          1381            aF/um^2
* Fringe (substrate)       204    105                                    aF/um
*                                                                       
*
*CIRCUIT PARAMETERS                            UNITS      
* Inverters                     K                         
*  Vinv                        1.0       0.78  volts      
*  Vinv                        1.5       0.82  volts      
*  Vol (100 uA)                2.0       0.01  volts      
*  Voh (100 uA)                2.0       1.78  volts      
*  Vinv                        2.0       0.86  volts      
*  Gain                        2.0     -16.40             
* Ring Oscillator Freq.                                   
*  D1024_THK (31-stg,3.3V)             232.41  MHz        
*  DIV512 (31-stg,1.8V)                470.92  MHz        
* Ring Oscillator Power                                   
*  D1024_THK (31-stg,3.3V)               0.07  uW/MHz/gate
*  DIV512 (31-stg,1.8V)                  0.02  uW/MHz/gate
* Operational Amplifier
*  Gain                                 14.0       
*                       
*COMMENTS: DEEP_SUBMICRON
*
*
*
*
* T82M SPICE BSIM3 VERSION 3.1 PARAMETERS
*
*SPICE 3f5 Level 8, Star-HSPICE Level 49, UTMOST Level 8
*
* DATE: Sep 30/08
* LOT: T82M                  WAF: 6003
* Temperature_parameters=Default
.MODEL CMOSN NMOS (                                LEVEL   = 49
+VERSION = 3.1            TNOM    = 27             TOX     = 4.5E-9
+XJ      = 1E-7           NCH     = 2.3549E17      VTH0    = 0.2956237
+K1      = 0.5507232      K2      = -0.0352387     K3      = 1E-3
+K3B     = 5.0168921      W0      = 1E-7           NLX     = 1.949146E-7
+DVT0W   = 0              DVT1W   = 0              DVT2W   = 0
+DVT0    = 0.5448837      DVT1    = 0.3297909      DVT2    = -0.3972393
+U0      = 282.0371913    UA      = -1.421796E-9   UB      = 2.722521E-18
+UC      = 6.161025E-11   VSAT    = 1.182839E5     A0      = 1.3502086
+AGS     = 0.3476935      B0      = -3.137242E-8   B1      = 0
+KETA    = -6.534475E-3   A1      = 1.244183E-3    A2      = 0.552951
+RDSW    = 150            PRWG    = 0.3698946      PRWB    = -0.1812424
+WR      = 1              WINT    = 6.706111E-9    LINT    = 2.263587E-8
+DWG     = 3.446558E-9    DWB     = 1.471742E-8    VOFF    = -0.0855549
+NFACTOR = 1.8906085      CIT     = 0              CDSC    = 2.4E-4
+CDSCD   = 0              CDSCB   = 0              ETA0    = 6.090477E-3
+ETAB    = -6.533333E-4   DSUB    = 3.463434E-3    PCLM    = 0.9025909
+PDIBLC1 = 0.9412555      PDIBLC2 = -0.0725716     PDIBLCB = -0.1
+DROUT   = 0.8386113      PSCBE1  = 8E10           PSCBE2  = 2.187097E-8
+PVAG    = 0.0136341      DELTA   = 0.01           RSH     = 6.3
+MOBMOD  = 1              PRT     = 0              UTE     = -1.5
+KT1     = -0.11          KT1L    = 0              KT2     = 0.022
+UA1     = 4.31E-9        UB1     = -7.61E-18      UC1     = -5.6E-11
+AT      = 3.3E4          WL      = 0              WLN     = 1
+WW      = 0              WWN     = 1              WWL     = 0
+LL      = 0              LLN     = 1              LW      = 0
+LWN     = 1              LWL     = 0              CAPMOD  = 2
+XPART   = 0.5            CGDO    = 4.27E-10       CGSO    = 4.27E-10
+CGBO    = 1E-12          CJ      = 8.157431E-4    PB      = 0.9192284
+MJ      = 0.5800896      CJSW    = 1.713224E-10   PBSW    = 0.8
+MJSW    = 0.2107393      CJSWG   = 3.3E-10        PBSWG   = 0.8
+MJSWG   = 0.2107393      CF      = 0              PVTH0   = -4.905444E-3
+PRDSW   = -2.5762559     PK2     = 4.210805E-3    WKETA   = 1.408013E-3
+LKETA   = 4.029362E-4    PU0     = -5.3619327     PUA     = -4.06805E-11
+PUB     = 5.570931E-22   PVSAT   = 597.950761     PETA0   = -1E-4
+PKETA   = -0.0262605      )
*
.MODEL CMOSP PMOS (                                LEVEL   = 49
+VERSION = 3.1            TNOM    = 27             TOX     = 4.5E-9
+XJ      = 1E-7           NCH     = 4.1589E17      VTH0    = -0.4214212
+K1      = 0.6051252      K2      = -5.28849E-7    K3      = 0.0836364
+K3B     = 19.7515285     W0      = 1E-6           NLX     = 1.716018E-8
+DVT0W   = 0              DVT1W   = 0              DVT2W   = 0
+DVT0    = 1.0383965      DVT1    = 0.7437546      DVT2    = -0.3
+U0      = 116.7973887    UA      = 1.47922E-9     UB      = 1E-21
+UC      = -1E-10         VSAT    = 1.587171E5     A0      = 0.8486964
+AGS     = 0.0850335      B0      = 1.753669E-6    B1      = 5E-6
+KETA    = 0.0314711      A1      = 1.662458E-3    A2      = 0.9285108
+RDSW    = 850.2748209    PRWG    = -0.1683444     PRWB    = -0.5
+WR      = 1              WINT    = 0              LINT    = 3.109872E-8
+DWG     = -3.477855E-8   DWB     = -9.588376E-9   VOFF    = -0.1353883
+NFACTOR = 1.0771158      CIT     = 0              CDSC    = 2.4E-4
+CDSCD   = 0              CDSCB   = 0              ETA0    = 1.017279E-3
+ETAB    = -2.697508E-3   DSUB    = 4.035002E-3    PCLM    = 0.2824201
+PDIBLC1 = 0.0371096      PDIBLC2 = 8.258025E-3    PDIBLCB = -1E-3
+DROUT   = 0.6371526      PSCBE1  = 1.220525E8     PSCBE2  = 5E-10
+PVAG    = 4.154228E-3    DELTA   = 0.01           RSH     = 6
+MOBMOD  = 1              PRT     = 0              UTE     = -1.5
+KT1     = -0.11          KT1L    = 0              KT2     = 0.022
+UA1     = 4.31E-9        UB1     = -7.61E-18      UC1     = -5.6E-11
+AT      = 3.3E4          WL      = 0              WLN     = 1
+WW      = 0              WWN     = 1              WWL     = 0
+LL      = 0              LLN     = 1              LW      = 0
+LWN     = 1              LWL     = 0              CAPMOD  = 2
+XPART   = 0.5            CGDO    = 4.24E-10       CGSO    = 4.24E-10
+CGBO    = 1E-12          CJ      = 1.165977E-3    PB      = 0.8214639
+MJ      = 0.4256548      CJSW    = 1.220056E-10   PBSW    = 0.8008
+MJSW    = 0.1001         CJSWG   = 4.22E-10       PBSWG   = 0.8008
+MJSWG   = 0.1001         CF      = 0              PVTH0   = -1.114213E-4
+PRDSW   = -5             PK2     = 2.348043E-4    WKETA   = 0.034518
+LKETA   = -0.0137884     PU0     = 7.3703357      PUA     = 3.838865E-10
+PUB     = 0              PVSAT   = 50             PETA0   = 1E-4
+PKETA   = -8.13614E-3     )
*

