Version 4
SHEET 1 2072 1460
WIRE 288 352 -16 352
WIRE 544 352 288 352
WIRE 704 352 544 352
WIRE 976 352 704 352
WIRE -16 368 -16 352
WIRE 288 368 288 352
WIRE 704 368 704 352
WIRE -16 464 -16 448
WIRE 288 480 288 448
WIRE 288 480 240 480
WIRE 352 480 288 480
WIRE 448 480 416 480
WIRE 560 480 528 480
WIRE 704 480 704 448
WIRE 704 480 624 480
WIRE 752 480 704 480
WIRE 288 496 288 480
WIRE 704 496 704 480
WIRE 976 512 976 352
WIRE 448 528 448 480
WIRE 528 528 528 480
WIRE 176 544 96 544
WIRE 240 544 176 544
WIRE 336 544 288 544
WIRE 704 544 656 544
WIRE 816 544 752 544
WIRE 336 576 336 544
WIRE 656 576 656 544
WIRE 96 624 96 544
WIRE 288 624 288 592
WIRE 496 624 288 624
WIRE 704 624 704 592
WIRE 704 624 496 624
WIRE 48 640 -32 640
WIRE 976 640 976 592
WIRE 976 640 896 640
WIRE 496 656 496 624
WIRE 976 656 976 640
WIRE 48 688 16 688
WIRE 496 704 464 704
WIRE 704 704 544 704
WIRE 896 704 896 640
WIRE 896 704 704 704
WIRE 928 704 896 704
WIRE 992 704 976 704
WIRE 96 736 96 704
WIRE 256 736 96 736
WIRE 272 736 256 736
WIRE -144 752 -192 752
WIRE -32 752 -32 640
WIRE -32 752 -144 752
WIRE 272 752 272 736
WIRE 96 784 96 736
WIRE -192 800 -192 752
WIRE -32 800 -32 752
WIRE 48 800 -32 800
WIRE 464 800 464 704
WIRE 496 800 496 752
WIRE 496 800 464 800
WIRE 704 800 496 800
WIRE 976 800 976 752
WIRE 976 800 704 800
WIRE 992 800 992 704
WIRE 992 800 976 800
WIRE 704 816 704 800
WIRE 16 848 16 688
WIRE 48 848 16 848
WIRE 272 848 272 832
WIRE -192 896 -192 880
WIRE 16 896 16 848
WIRE 96 912 96 864
WIRE 816 912 816 544
WIRE 816 912 96 912
FLAG 704 816 0
FLAG 336 576 0
FLAG 656 576 0
FLAG 272 848 0
FLAG -16 464 0
FLAG -192 896 0
FLAG 16 896 0
FLAG 176 544 inP
FLAG 816 544 inN
FLAG 752 480 outP
FLAG 240 480 outN
FLAG 448 528 0
FLAG 528 528 0
FLAG 496 624 d3
FLAG 704 704 g3
FLAG 544 352 dd
FLAG -144 752 indm
FLAG 256 736 incm
SYMBOL res 272 352 R0
SYMATTR InstName Rd1
SYMATTR Value 4000
SYMBOL res 688 352 R0
SYMATTR InstName Rd2
SYMATTR Value 4000
SYMBOL voltage 272 736 R0
WINDOW 123 24 132 Left 2
WINDOW 39 0 0 Left 2
SYMATTR Value2 AC 0 0
SYMATTR InstName VCM
SYMATTR Value 2
SYMBOL voltage -16 352 R0
WINDOW 123 0 0 Left 2
WINDOW 39 0 0 Left 2
SYMATTR InstName VDD
SYMATTR Value 3
SYMBOL current 976 512 R0
WINDOW 123 0 0 Left 2
WINDOW 39 0 0 Left 2
SYMATTR InstName Iref
SYMATTR Value 100µ
SYMBOL voltage -192 784 R0
WINDOW 123 24 132 Left 2
WINDOW 39 0 0 Left 2
SYMATTR Value2 AC 1 0
SYMATTR InstName Vin
SYMATTR Value SINE(0 0.1 1k)
SYMBOL e 96 608 R0
SYMATTR InstName Edif_half1
SYMATTR Value 0.5
SYMBOL e 96 768 R0
SYMATTR InstName Edif_half2
SYMATTR Value 0.5
SYMBOL cap 416 464 R90
WINDOW 0 0 32 VBottom 2
WINDOW 3 32 32 VTop 2
SYMATTR InstName Cd1
SYMATTR Value 0.1p
SYMBOL cap 624 464 R90
WINDOW 0 0 32 VBottom 2
WINDOW 3 32 32 VTop 2
SYMATTR InstName Cd2
SYMATTR Value 0.1p
SYMBOL AAICE_level1_nmos 240 496 R0
SYMATTR InstName M1
SYMBOL AAICE_level1_nmos 752 496 M0
SYMATTR InstName M2
SYMBOL AAICE_level1_nmos 928 656 R0
SYMATTR InstName M3
SYMBOL AAICE_level1_nmos 544 656 M0
SYMATTR InstName M4
TEXT -248 16 Left 2 ;DC simulation file for AAICE Exam exercise E2: \nElectronically Variable Transconductor applied as Amplifier:\n \nTransconductor based on differential pair M1-M2, biased by a current mirror M3-M4:\n* floating differential voltage input\n* transconductance controllable by Iref\nI-V conversion at the output via resistors Rd1 and Rd2 with capacitive loads Cd1 and Cd2\n \nDrive and test condition:\n* Balanced voltage drive via auxiliary sources Edif_half1 and Edif_half2 that make: V(inP)-V(inN)=Vin\n* Common mode input voltage control via VCM
TEXT -248 968 Left 2 ;Analysis types defined:(right click the simulation command line to switch between different analysis or change ; to . to go to AC or TRAN)\n* op analysis, check transistors operating region.\n \n* DC analysis: static sweep of input voltage. The small signal voltage gain Av is calculated by taking\nthe derivate Av=d(V(outP)-V(outN))/d(V(inP)-V(inN)) and plotting it as a function of the differential input voltage Vin (-0.2V...0.2V) with VCM as a second sweep parameter (1V...3V). \nNote: when zoomed in, the curve may has a stair-case shape due to limited resolution.\nThe second sweep on VCM can be disabled by right clicking the simulation command=>DC Sweep => 2nd Source, and delete all the parameters.\nAn ideal linear amplifier should have constant gain, independent of both the differential and common input voltage.\n \n* AC analysis 1: Gain as a function of frequency, set the AC value of source Vin to 1 Volt, and the AC value of source VCM to 0 Volt)\n* AC analysis 2: Examine the common mode rejection of the circuit via AC simulation, but now with a COMMON mode voltage \nexcitation (for this purpose put the AC value of source Vin to 0Volt (off), and the AC value of source VCM to 1Volt). \nNote: in AC analysis the biasing point is calculated using DC settings of all sources\nEvery signal in AC analysis has two curves, The solid curve is the magnitude.The dotted curve is the phase. \nThe vertical scale on the right side belongs to phase. You can switch it on or off with a Left-Mouse-Click on this scale.\n \n* Transient Analysis: sinewave input; Fourier analysis on output to visualize distortion products. A linear amplifier obviously should have low distortion products. (Fourier analysis\ncan be performed by right clicking the waveform and click FFT, then choose the trace to be plotted).
TEXT 840 840 Left 2 !.dc Vin -0.25 0.25 0.01 VCM 0 4 0.5
TEXT 840 920 Left 2 !;tran 0 10m 0.01m
TEXT 840 880 Left 2 !;ac oct 10 1k 1G
