Version 4
SHEET 1 1196 1412
WIRE -160 208 -288 208
WIRE -112 208 -160 208
WIRE 464 208 -112 208
WIRE -288 224 -288 208
WIRE 176 224 32 224
WIRE 32 240 32 224
WIRE 176 240 176 224
WIRE 176 240 128 240
WIRE 464 240 464 208
WIRE 176 256 176 240
WIRE 128 272 128 240
WIRE -112 288 -112 208
WIRE -288 320 -288 304
WIRE 464 336 464 320
WIRE 464 336 368 336
WIRE 128 352 128 320
WIRE 176 352 176 336
WIRE 176 352 128 352
WIRE 464 352 464 336
WIRE 32 384 32 320
WIRE 176 384 176 352
WIRE 368 400 368 336
WIRE 416 400 368 400
WIRE 480 400 464 400
WIRE -112 432 -112 368
WIRE -48 432 -112 432
WIRE 0 432 -48 432
WIRE 240 432 96 432
WIRE 368 432 368 400
WIRE 368 432 240 432
WIRE -112 464 -112 432
WIRE 176 464 176 384
WIRE 464 464 464 448
WIRE 480 464 480 400
WIRE 480 464 464 464
WIRE -112 512 -144 512
WIRE 96 512 96 432
WIRE 96 512 -64 512
WIRE 128 512 96 512
WIRE 192 512 176 512
WIRE 464 512 464 464
WIRE -144 576 -144 512
WIRE -112 576 -112 560
WIRE -112 576 -144 576
WIRE 176 576 176 560
WIRE 192 576 192 512
WIRE 192 576 176 576
WIRE 176 592 176 576
WIRE -112 608 -112 576
WIRE -112 624 -112 608
WIRE 176 624 176 592
WIRE -112 672 -144 672
WIRE 0 672 0 432
WIRE 0 672 -64 672
WIRE 128 672 0 672
WIRE 192 672 176 672
WIRE -144 736 -144 672
WIRE -112 736 -112 720
WIRE -112 736 -144 736
WIRE 176 736 176 720
WIRE 192 736 192 672
WIRE 192 736 176 736
WIRE -112 768 -112 736
WIRE 16 768 -112 768
WIRE 176 768 176 736
WIRE 176 768 16 768
WIRE 16 784 16 768
FLAG 16 784 0
FLAG -288 320 0
FLAG 32 384 0
FLAG 464 512 0
FLAG -48 432 in
FLAG 176 384 out
FLAG 240 432 bias
FLAG -112 608 d4
FLAG 176 592 d2
FLAG -160 208 dd
SYMBOL voltage -288 208 R0
WINDOW 123 0 0 Left 2
WINDOW 39 0 0 Left 2
SYMATTR InstName Vdd
SYMATTR Value 3
SYMBOL voltage 32 224 R0
WINDOW 123 0 0 Left 2
WINDOW 39 0 0 Left 2
WINDOW 0 34 32 Left 2
WINDOW 3 38 71 Left 2
SYMATTR InstName Vout
SYMATTR Value 2
SYMBOL current -112 288 R0
WINDOW 123 28 58 Left 2
WINDOW 39 0 0 Left 2
WINDOW 3 24 28 Left 2
SYMATTR Value2 AC 1
SYMATTR Value 650e-6
SYMATTR InstName Iin
SYMBOL current 464 240 R0
WINDOW 123 0 0 Left 2
WINDOW 39 0 0 Left 2
SYMATTR InstName Ibias
SYMATTR Value 650e-6
SYMBOL AAICE_level1_nmos 128 464 R0
SYMATTR InstName M4
SYMATTR SpiceLine2 ""
SYMATTR SpiceModel ""
SYMATTR Value NMOS_VE2_level1
SYMATTR Value2 l=0.5u w=50u ad=50p as=50p pd=104u ps=104u m=1
SYMBOL AAICE_level1_nmos 128 624 R0
SYMATTR InstName M2
SYMATTR SpiceLine2 ""
SYMATTR SpiceModel ""
SYMATTR Value NMOS_VE2_level1
SYMATTR Value2 l=0.5u w=50u ad=50p as=50p pd=104u ps=104u m=1
SYMBOL AAICE_level1_nmos 416 352 R0
SYMATTR InstName M5
SYMATTR SpiceLine2 ""
SYMATTR SpiceModel ""
SYMATTR Value NMOS_VE2_level1
SYMATTR Value2 l=0.5u w=50u ad=50p as=50p pd=104u ps=104u m=1
SYMBOL AAICE_level1_nmos -64 624 M0
SYMATTR InstName M1
SYMATTR SpiceLine2 ""
SYMATTR SpiceModel ""
SYMATTR Value NMOS_VE2_level1
SYMATTR Value2 l=0.5u w=50u ad=50p as=50p pd=104u ps=104u m=1
SYMBOL AAICE_level1_nmos -64 464 M0
SYMATTR InstName M3
SYMATTR SpiceLine2 ""
SYMATTR SpiceModel ""
SYMATTR Value NMOS_VE2_level1
SYMATTR Value2 l=0.5u w=50u ad=50p as=50p pd=104u ps=104u m=1
SYMBOL Overige\ componenten\\g2 176 352 M180
WINDOW 0 21 100 Left 2
WINDOW 3 43 54 Left 2
SYMATTR InstName NoiseLess1ohm
SYMATTR Value 1
TEXT -576 -352 Left 2 ;DC, AC and Noise simulation file for AAICE Exam Exercise E3: \nCurrent mirror:\n* Goal: maximize output voltage range\n* To change W/L, preferrably change Multiplier M instead of W or L, because this also scales parasitics\n in the right way (e.g. AD, AS, PD, PS). M can also be chosen smaller than 1. \n* The load impedance behind the mirror is modelled by a lossless 1ohm resistor.  \n \nAnalysis types defined:\n* DC analysis: Iin is swept from 100uA to 1mA in 100uA steps, while Vout is stepped from 1V  down to 0.1V in steps of 0.1 Volt.\n  It may be useful to also generate a graph Id(M4)/I(Iin) as function of Vout;\n \n* AC analysis - generate input impedance graph via V(in)/I(Iin).\n \n* Noise analysis for the input and output noise: output noise voltage and current are equal due to noiseless 1 ohm. \n  You can reference output noise to the input by dividing it by the data trace "gain" (for further information\n  press 'F1'=>LTspice=>Dot Commands=>.noise)\n* tip: clicking on a component show its noise contribution to the output voltage
TEXT -544 456 Left 2 !;ac oct 10 1k 1G
TEXT -552 392 Left 2 !.dc Iin 100u 1m 10u Vout 0.1 1 0.1
TEXT -544 504 Left 2 !;noise V(out) Iin oct 10 1K 1G
