Version 4
SHEET 1 1064 1540
WIRE -944 -32 -992 -32
WIRE -304 -32 -864 -32
WIRE -1088 48 -1296 48
WIRE -880 48 -1088 48
WIRE -480 48 -880 48
WIRE -1296 80 -1296 48
WIRE -880 80 -880 48
WIRE -1088 96 -1088 48
WIRE -480 96 -480 48
WIRE -528 144 -672 144
WIRE -432 144 -480 144
WIRE -880 176 -880 160
WIRE -672 176 -672 144
WIRE -672 176 -880 176
WIRE -880 192 -880 176
WIRE -1088 208 -1088 176
WIRE -992 240 -992 -32
WIRE -928 240 -992 240
WIRE -864 240 -880 240
WIRE -480 240 -480 192
WIRE -352 240 -480 240
WIRE -304 240 -304 -32
WIRE -304 240 -352 240
WIRE -480 256 -480 240
WIRE -1296 272 -1296 160
WIRE -992 272 -992 240
WIRE -992 272 -1296 272
WIRE -672 272 -672 176
WIRE -304 272 -304 240
WIRE -1296 304 -1296 272
WIRE -880 304 -880 288
WIRE -864 304 -864 240
WIRE -864 304 -880 304
WIRE -880 384 -880 304
WIRE -672 384 -672 336
WIRE -672 384 -880 384
WIRE -480 384 -480 336
WIRE -480 384 -672 384
WIRE -432 384 -432 144
WIRE -432 384 -480 384
WIRE -304 384 -304 336
WIRE -304 384 -432 384
WIRE -1296 400 -1296 368
WIRE -880 416 -880 384
FLAG -880 416 0
FLAG -1296 400 0
FLAG -1088 208 0
FLAG -352 240 out5
SYMBOL current -880 80 R0
WINDOW 123 0 0 Left 2
WINDOW 39 0 0 Left 2
SYMATTR InstName I11
SYMATTR Value 2.6e-3
SYMBOL voltage -1088 80 R0
WINDOW 123 0 0 Left 2
WINDOW 39 0 0 Left 2
SYMATTR InstName VDD5
SYMATTR Value 3
SYMBOL current -1296 80 R0
WINDOW 123 24 116 Left 2
WINDOW 39 0 0 Left 2
WINDOW 3 -108 -65 Left 2
SYMATTR Value PULSE(0 .1u 1u 1n 1n 1u 2u)
SYMATTR InstName Iin5
SYMBOL cap -1312 304 R0
SYMATTR InstName C7
SYMATTR Value 10p
SYMBOL res -848 -48 R90
WINDOW 0 0 56 VBottom 2
WINDOW 3 32 56 VTop 2
SYMATTR InstName R7
SYMATTR Value 10k
SYMBOL current -480 256 R0
WINDOW 123 0 0 Left 2
WINDOW 39 0 0 Left 2
SYMATTR InstName I13
SYMATTR Value 50e-6
SYMBOL cap -320 272 R0
SYMATTR InstName C8
SYMATTR Value 10p
SYMBOL cap -688 272 R0
SYMATTR InstName C9
SYMATTR Value 2p
SYMBOL AAICE_level1_nmos -928 192 R0
SYMATTR InstName M1
SYMATTR SpiceLine2 ""
SYMATTR SpiceModel ""
SYMATTR Value NMOS_VE2_level1
SYMATTR Value2 l=0.5u w=50u ad=50p as=50p pd=104u ps=104u m=20
SYMBOL AAICE_level1_nmos -528 96 R0
SYMATTR InstName M2
TEXT -1296 -296 Left 2 ;Transient simulation file for AAICE Exam Exercise E4: part III\nTransimpedance amplifier using a common source amplifier and a source follower with an added capacitance between stages.\n \nAnalysis types defined:\n* TRAN analysis of output (step response): v(out5) (NOTE: CIRCUIT IS NOT STABLE!)
TEXT -1264 -56 Left 2 !.tran 10u
