Version 4
SHEET 1 4068 1360
WIRE 864 -16 656 -16
WIRE 864 16 864 -16
WIRE 656 48 656 -16
WIRE 656 96 656 48
WIRE 1440 112 1232 112
WIRE 1552 112 1520 112
WIRE 864 128 864 96
WIRE 1232 128 1232 112
WIRE 576 144 480 144
WIRE 608 144 576 144
WIRE 672 144 656 144
WIRE 1552 160 1552 112
WIRE 864 176 864 128
WIRE 1504 176 1488 176
WIRE 480 192 480 144
WIRE 672 192 672 144
WIRE 672 192 656 192
WIRE 1552 240 1552 224
WIRE 1232 272 1232 208
WIRE 1552 272 1552 240
WIRE 1552 272 1232 272
WIRE 1232 288 1232 272
WIRE 480 320 480 272
WIRE 656 320 656 192
WIRE 656 320 480 320
WIRE 672 320 656 320
WIRE 864 320 864 256
WIRE 864 320 672 320
WIRE 672 352 672 320
FLAG 672 352 0
FLAG 656 48 DN
FLAG 576 144 GN
FLAG 864 128 VDD
FLAG 1232 288 0
FLAG 1504 224 0
FLAG 1488 176 DN
SYMBOL voltage 864 160 R0
WINDOW 123 0 0 Left 2
WINDOW 39 0 0 Left 2
SYMATTR InstName VDrain
SYMATTR Value 1
SYMBOL voltage 480 176 R0
WINDOW 123 24 132 Left 2
WINDOW 39 0 0 Left 2
SYMATTR Value2 AC 1
SYMATTR InstName VGate
SYMATTR Value SINE(.45 1E-2 1E3)
SYMBOL res 848 0 R0
SYMATTR InstName Rd
SYMATTR Value {Rdrain}
SYMBOL UMC13nmos 608 96 R0
WINDOW 40 65 106 Left 2
WINDOW 3 64 48 Left 2
WINDOW 39 65 78 Left 2
SYMATTR SpiceLine2 m={mWn}
SYMATTR Value W=1u
SYMATTR InstName MN
SYMBOL bi 1232 128 R0
WINDOW 3 -47 -90 Left 2
WINDOW 0 -36 -54 Left 2
SYMATTR Value I=W/L*mWn*BetaSqN/2*(V(GN)-VThN)**2
SYMATTR InstName B_I_Square1
SYMBOL e 1552 144 R0
SYMATTR InstName EDN1
SYMATTR Value 1
SYMBOL res 1536 96 R90
WINDOW 0 0 56 VBottom 2
WINDOW 3 32 56 VTop 2
SYMATTR InstName Rd1
SYMATTR Value {Rdrain}
TEXT 88 -568 Left 3 ;README FIRST\nGoal: Maximise small-signal gain and relate DC-transfer to .op and .ac results\n \nQ1: For Vgs=0.45V, changing only Rdrain, what is the maximum small-signal voltage gain and what is the MOSFET operating region?\nQ2: Find the transconductance of the MOSFET in the relevant bias point and relate it to voltage gain. Formula?\nQ3: Verify this transconductance using .op analysis and View>>SPICE Error log. How close does it fit expectation? (in %)\nQ4: Check the voltage gain by .AC and .TRAN analysis? What happens if you increase AC or Sine amplitude by 10x? Explain why.\nQ5: If you bias in weak inversion can you get more gain? Why or why not?\n \nUse these types of analysis in this order: \n* .DC analysis of output voltage and current for gain and Gm (if you need a derivative use d(variable) )\n* .OP analysis to find the small signal parameters in the operating point \n* .AC analysis for small signal gain analysis versus frequency
TEXT 184 488 Left 3 !;dc VGate 0 1.2 .001
TEXT 384 -72 Left 3 ;CS-stage with 130nm Transistor stage
TEXT 160 552 Left 3 !.param Rdrain=100 mWn=1 mWp=1 W=1u L=0.12u BetaSqN=3.6E-4 VThN=0.32 BetaSqP=.97E-4 VThP=-0.285
TEXT 824 488 Left 3 !;ac dec 10 1E3 1E8
TEXT 1256 488 Left 3 !;tran 0 5E-3 0 5e-6
TEXT 112 424 Left 3 ;Select Analysis here (.xx=active  ;xx = comment) ".ac", ".dc" or ".tran" - alternatively edit by Edit menu -> SPICE Analysis):
TEXT 1200 -64 Left 3 ;Quadratic Voltage Controlled Current Source \n("Macro Model")
TEXT 640 488 Left 3 !;op
